tests/data/state_estimation/ill-conditioned-system/grid0-no-capacitance/asym_output.json
{
  "version": "1.0",
  "type": "asym_output",
  "is_batch": false,
  "attributes": {},
  "data": {
    "node": [
      {
        "id": 0,
        "energized": 1,
        "u_pu": [
          0.9947061877982076,
          0.9947061877982079,
          0.9947061877982095
        ],
        "u": [
          5742.938852898817,
          5742.938852898817,
          5742.938852898827
        ],
        "u_angle": [
          -0.007066394337766698,
          -2.101461496730962,
          2.087328708055429
        ],
        "p": [
          501035.9177205215,
          501035.9177204648,
          501035.9177204662
        ],
        "q": [
          301035.9177205401,
          301035.9177205265,
          301035.9177205166
        ]
      },
      {
        "id": 1,
        "energized": 1,
        "u_pu": [
          0.9922873497821686,
          0.992287349782169,
          0.9922873497821706
        ],
        "u": [
          5728.973685101953,
          5728.973685101956,
          5728.973685101965
        ],
        "u_angle": [
          -0.007674275944599745,
          -2.102069378337795,
          2.086720826448596
        ],
        "p": [
          -499999.9999999938,
          -499999.9999999373,
          -499999.9999999386
        ],
        "q": [
          -300000.0000000124,
          -299999.9999999988,
          -299999.999999989
        ]
      }
    ],
    "line": [
      {
        "id": 2,
        "energized": 1,
        "p_from": [
          501035.9177205215,
          501035.9177204648,
          501035.9177204662
        ],
        "q_from": [
          301035.9177205401,
          301035.9177205265,
          301035.9177205166
        ],
        "i_from": [
          101.7800432564134,
          101.7800432564037,
          101.7800432564029
        ],
        "s_from": [
          584516.5648669788,
          584516.5648669231,
          584516.5648669192
        ],
        "p_to": [
          -499999.9999999938,
          -499999.9999999373,
          -499999.9999999386
        ],
        "q_to": [
          -300000.0000000124,
          -299999.9999999988,
          -299999.999999989
        ],
        "i_to": [
          101.7800432564134,
          101.7800432564037,
          101.7800432564029
        ],
        "s_to": [
          583095.1894845311,
          583095.1894844756,
          583095.1894844718
        ]
      }
    ],
    "source": [
      {
        "id": 3,
        "energized": 1,
        "p": [
          501035.9177205215,
          501035.9177204648,
          501035.9177204662
        ],
        "q": [
          301035.9177205402,
          301035.9177205265,
          301035.9177205166
        ],
        "i": [
          101.7800432564134,
          101.7800432564037,
          101.7800432564029
        ],
        "s": [
          584516.5648669788,
          584516.5648669231,
          584516.5648669192
        ],
        "pf": [
          0.8571800147948665,
          0.8571800147948513,
          0.8571800147948594
        ]
      }
    ],
    "sym_load": [
      {
        "id": 4,
        "energized": 1,
        "p": [
          500000,
          500000,
          500000
        ],
        "q": [
          299999.9999999999,
          299999.9999999999,
          299999.9999999999
        ],
        "i": [
          101.7800432564133,
          101.7800432564132,
          101.780043256413
        ],
        "s": [
          583095.1894845299,
          583095.1894845299,
          583095.1894845299
        ],
        "pf": [
          0.8574929257125444,
          0.8574929257125444,
          0.8574929257125444
        ]
      }
    ]
  }
}
